[General]
ned-path = .;../src;/home/albert/omnetWorkSpace/inet/src

[Config UdpFlood]
network = UdpFlood
sim-time-limit = 500s
**.scalar-recording = false
**.NumReceivedIpPackets:vector.vector-recording = true
**.vector-recording = false


*.intAttackersIn*Lan = 5
*.intClientsIn*Lan = 3

*.受控主机[*].numApps = 1
*.受控主机[*].app[0].typename = "UdpBasicApp"
*.受控主机[*].app[0].destAddresses = "服务器"
*.受控主机[*].app[0].destPort = 1000
*.受控主机[*].app[0].messageLength = 1B
*.受控主机[*].app[0].sendInterval = 0.3s # the paramater of random variate is the time interval of event happend
*.受控主机[*].app[0].startTime = 200s
*.受控主机[*].app[0].stopTime = 300s

*.普通用户[*].numApps = 1
*.普通用户[*].app[0].typename = "UdpBasicApp"
*.普通用户[*].app[0].destAddresses = "服务器"
*.普通用户[*].app[0].destPort = 1000
*.普通用户[*].app[0].messageLength = 1B
*.普通用户[*].app[0].sendInterval = exponential(1s)

*.服务器.numApps = 1
*.服务器.app[0].typename = "UdpSink"
*.服务器.app[0].localPort = 1000


[Config TcpSynAttack]
network = TcpSynAttack

*.numSubnet*Attackers = 2
*.总线[0].positions = "40"
*.总线[1].positions = "33"

*.被控主机[*].numApps = 1
*.被控主机[*].tcp.typename = "DSAK_Tcp"
*.被控主机[*].app[0].typename = "DSAK_TcpSynAttackApp"
*.被控主机[*].app[0].connectAddress = "服务器"
*.被控主机[*].app[0].connectPort = 1000

*.服务器.numApps = 1
*.服务器.app[0].typename = "TcpGenericServerApp"
*.服务器.app[0].localPort = 1000

[Config PingAttack]
network = Ping攻击

*.numSubnet*Attackers = 2
*.numSubnet*Clients = 1
*.总线[0].positions = "40"
*.总线[1].positions = "33"

*.路由器[*].eth[*].mac.queue.packetCapacity = 3
*.路由器[*].ppp[*].ppp.queue.packetCapacity = 3

*.被控主机[*].numApps = 1
*.被控主机[*].app[0].typename = "PingApp"
*.被控主机[*].app[0].destAddr = "服务器"
*.被控主机[*].app[0].sendInterval = 5ms
*.被控主机[*].app[0].startTime = 3s
*.被控主机[*].app[0].stopTime = 10s

*.正常客户[*].numApps = 1
*.正常客户[*].app[0].typename = "TcpBasicClientApp"
*.正常客户[*].app[0].connectAddress = "服务器"
*.正常客户[*].app[0].connectPort = 1000
*.正常客户[*].app[0].thinkTime = 0s
*.正常客户[*].app[0].idleInterval = 0s
*.正常客户[*].app[0].numRequestsPerSession = 10
*.正常客户[*].app[0].requestLength = 1000B
*.正常客户[*].app[0].replyLength = 1000B

*.服务器.numApps = 1
*.服务器.app[0].typename = "TcpGenericServerApp"
*.服务器.app[0].localPort = 1000
**.tcp.mss = 1456

*.visualizer.*.packetDropVisualizer.displayPacketDrops = true
*.visualizer.*.packetDropVisualizer.labelFormat = "name: %n; reason: %r;"
*.visualizer.*.packetDropVisualizer.fadeOutTime = 3s

*.正常客户[1..].eth[0].csmacdSupport = true
*.被控主机[2..].eth[0].csmacdSupport = true
*.服务器.eth[0].csmacdSupport = true
*.路由器[1..2].eth[0].csmacdSupport = true

*.正常客户[1..].eth[0].mac.duplexMode = false
*.被控主机[2..].eth[0].mac.duplexMode = false
*.服务器.eth[0].mac.duplexMode = false
*.路由器[1..2].eth[0].mac.duplexMode = false



